%chk=SubH_AttN1CC1_wb97xd_aug-cc-pvtz.chk
%nprocs=4
%mem=3200MB
#p wb97xd/aug-cc-pvtz opt freq output=wfx

*N1CC1

0 1
N 2.161495  0.098768 -0.385696
H 1.364427 -0.149338  0.172948
C 2.869808  1.308620 -0.050859
C 3.454951 -0.015456  0.235246
H 3.218830  1.895439 -0.882496
H 2.521481  1.886123  0.791852
H 3.495050 -0.327195  1.267038
H 4.240058 -0.412727 -0.383854

SubH_AttN1CC1_wb97xd_aug-cc-pvtz.wfx


