%chk=SubH_AttC-C-C_wb97xd_aug-cc-pvtz.chk
%nprocs=4
%mem=3200MB
#p wb97xd/aug-cc-pvtz opt freq output=wfx

*C(C)C

0 1
C -0.812213  0.707265  2.433459
H -1.383542  0.905202  1.543713
C -1.293680  1.684691  3.512227
C -0.972637 -0.749367  2.867342
H -1.427194 -2.449373 -2.593674
H  0.214969  0.919577  2.181231
H -2.338545  1.522931  3.747713
H -0.710253  1.517438  4.411093
H -1.161289  2.712811  3.203985
H -0.361976 -0.917532  3.747591
H -2.002267 -0.969708  3.117195

SubH_AttC-C-C_wb97xd_aug-cc-pvtz.wfx


