%chk=SubH_AttNCdN_wb97xd_aug-cc-pvtz.chk
%nprocs=4
%mem=3200MB
#p wb97xd/aug-cc-pvtz opt freq output=wfx

*NC=N

0 1
N -0.973927 1.261305 0.530920
H -0.574476 0.461415 0.078836
C -2.306164 1.520833 0.586218
N -3.210578 0.696893 0.279429
H -0.388251 2.066277 0.560672
H -2.513388 2.517745 0.959564
H -4.116987 1.091256 0.441464

SubH_AttNCdN_wb97xd_aug-cc-pvtz.wfx


